51
    -178.602280
O   3.8548243   0.48209     2.18531728
H   4.67018318  0.66504967  1.70682752
H   3.34375525 -0.10393398  1.60232365
O   3.23222351 -1.79293609 -3.00762415
H   2.28137136 -1.64812422 -3.07332706
H   3.59138989 -0.97540903 -2.63523102
O  -0.18929797  1.47782683  0.44562948
H   0.29110453  1.35806966  1.28422272
H  -0.86129934  2.13435221  0.60886312
O   0.79685903 -1.61642098  3.85810137
H   0.19672051 -1.85196328  4.56096888
H   0.59805268 -2.20967817  3.11278129
O   1.32725585  1.43250513 -1.99916363
H   2.26480246  1.28511763 -1.81288707
H   0.8902272   1.57491696 -1.15051448
O   2.53935885 -1.16658723  0.39785993
H   2.7509737  -2.09278989  0.56427312
H   1.59212351 -1.13722563  0.2183626
O   5.96772909 -2.24327302  0.37272593
H   5.73295212 -2.70667958  1.18627846
H   5.53154564 -2.72484636 -0.34004709
O  -0.20036751 -1.24857998 -0.25764701
H  -0.36641875 -0.32616892 -0.01988488
H  -0.07103852 -1.27320933 -1.21483588
O   4.97027302 -3.63553262  2.66185045
H   4.51764631 -2.94908237  3.18554258
H   5.420403   -4.20314884  3.28097296
O   4.43435907 -3.74236703 -1.5643301
H   3.98735976 -3.07613397 -2.11597037
H   4.81021595 -4.38292551 -2.1623013
O   3.64344311 -1.68013096  3.94084311
H   3.83794188 -0.85927582  3.4677856
H   2.68186641 -1.71602392  4.0139699
O   0.30341014 -3.21628952  1.71027493
H   1.11761403 -3.61810708  1.37967908
H  -0.02361406 -2.64497495  1.00211513
O   0.47705054 -0.9473691  -2.98671579
H   0.75352359 -0.04891149 -2.72728992
H  -0.05511327 -0.85539514 -3.77268267
O   6.07792282  0.47763389  0.39102334
H   6.98698997  0.76386541  0.39077836
H   6.09125185 -0.49699661  0.38200253
O   3.88464308  0.41452378 -1.41453362
H   4.70543861  0.61565649 -0.95320636
H   3.39741468 -0.17740625 -0.81735003
O   2.90428424 -3.93046474  0.78308642
H   3.58395195 -3.96482778  1.46981955
H   3.36185336 -4.01793051 -0.06386584
O   1.14992285  0.99827486  2.74429107
H   0.96502376  0.15010449  3.16734529
H   2.1109767   1.04330873  2.65575576
