60
-186.542358
O  -1.75513351 -1.05152857 -0.91796988
H  -2.07249975 -1.86735666 -0.53734022
H  -1.61315417 -1.22738338 -1.86297476
O   3.28632712  3.8779676  -0.68496585
H   3.27274323  2.98610258 -1.05816174
H   2.40819836  4.01929712 -0.30210584
O   0.66220939  0.67458045 -3.93388772
H  -0.041866    0.02129591 -3.858284  
H   0.47732878  1.34258032 -3.26075983
O   0.80992502  0.04265696 -0.21626842
H   0.87229663 -0.01790345  0.74576479
H   0.02576449 -0.45606539 -0.47160691
O   6.82335997  0.89978755  0.45533377
H   6.2975378  0.1035918  0.2810761
H   7.65956354  0.59101206  0.79580498
O   1.11114454 -2.93289971 -3.61211133
H   1.68657672 -2.36009049 -4.13516235
H   1.61540163 -3.04405618 -2.79254031
O   0.79577851  0.04657849  2.59410143
H   0.17167738  0.7896204   2.5278604 
H   0.4410308  -0.54535538  3.25338697
O   2.95930791 -0.82034248 -4.11467457
H   3.66555953 -0.33746979 -4.5346508 
H   2.21289062 -0.20180277 -4.03696871
O  -2.10398126  4.38781643  0.54378623
H  -2.36129475  3.52360487  0.18774815
H  -2.91229892  4.88560247  0.64272761
O   0.08535275  2.27174377 -1.70846081
H   0.41851348  1.56199312 -1.13792157
H   0.32700154  3.10838675 -1.29135275
O   3.05822492 -2.48486638 -1.72062969
H   3.16790485 -1.85220945 -2.44423175
H   3.7145431  -2.24294472 -1.05979156
O   3.31844497  1.06539011 -0.95776749
H   2.49285865  0.59233958 -0.78436965
H   3.66045356  1.3449558  -0.09494081
O   4.57904863  2.2893908   1.32279599
H   5.45020247  1.97890711  1.0298382 
H   4.3420682   3.0575254   0.79184329
O   0.59679031  4.57650614 -0.24764922
H  -0.31461418  4.71461105  0.03488721
H   0.87363088  5.31911898 -0.80379605
O   2.16355896  6.18447924 -1.88136196
H   2.77877951  5.48205519 -1.61866772
H   2.35101938  6.36367607 -2.79987121
O  -1.19464433 -1.55443871 -3.55426359
H  -0.39787301 -2.11697078 -3.56117654
H  -1.71585786 -1.80376971 -4.31285572
O  -2.29391527  1.7278856  -0.44147232
H  -2.3646121   0.77466202 -0.56429499
H  -1.54351282  1.98994482 -0.99876714
O   4.8577137  -1.06957543  0.02774456
H   4.40922308 -0.43225616 -0.54681402
H   4.457201   -0.94230372  0.90265405
O   3.65758324 -0.14482765  2.35747457
H   3.97235703  0.75876898  2.2114861 
H   2.7114253  -0.06818958  2.51966953
O  -1.05772984  1.98098278  2.12060523
H  -1.11223888  2.93777323  2.13610005
H  -1.48044086  1.73566234  1.28630531
