63
-199.435883
O  -4.99639511 -1.09679449 -2.68130755
H  -4.91924763 -0.1983037  -2.32818413
H  -4.38970184 -1.63293636 -2.15608191
O  -2.28857827  3.28288007 -4.99574614
H  -2.08041954  3.85325432 -4.24175072
H  -2.10960197  2.38488102 -4.68333578
O  -0.35421827 -2.66519237 -2.41926742
H   0.42050132 -2.08267927 -2.47607875
H  -0.69521695 -2.72636056 -3.32052183
O  -4.4854846   1.55431151 -1.93082619
H  -4.668643    1.8685447  -2.83112693
H  -3.81840301  2.13857293 -1.57159305
O   0.34778792  2.92122245 -5.91411638
H  -0.59089976  3.14411902 -5.83967829
H   0.39721993  2.02342629 -6.25965166
O  -2.28015757 -3.77245021  1.06290889
H  -1.37995172 -3.42293215  0.99475825
H  -2.19878674 -4.64892769  1.43234861
O  -1.63008225 -0.16117033 -0.08434889
H  -1.02613306 -0.77988929  0.34173968
H  -2.28625393 -0.72530758 -0.51815957
O  -1.32790971  4.44470596 -2.64193964
H  -0.38631192  4.26922512 -2.76229215
H  -1.60379064  4.01010799 -1.82974994
O   3.75867987  2.36248469 -4.18414068
H   4.3320694   3.05867624 -4.49600554
H   2.96308708  2.80371165 -3.84847498
O   1.70769823 -0.8717044  -2.4633553 
H   1.34000516 -0.02858683 -2.17801285
H   2.22664785 -0.68520188 -3.25587535
O   1.27133131  3.29562712 -3.36441135
H   0.94944394  2.54053307 -2.86051369
H   0.95018268  3.19521236 -4.27809191
O  -2.93871379 -2.3278501  -1.22063828
H  -2.90993237 -2.89961553 -0.44067934
H  -2.14122963 -2.51739669 -1.72992408
O  -1.37646496 -1.9825449  -4.92443991
H  -2.28700399 -1.92303324 -5.2379427 
H  -1.28028071 -1.16421163 -4.41548347
O   0.46000126  0.04015531 -6.02840519
H   1.3537364  -0.10003595 -5.68713808
H   0.00846081 -0.81070954 -6.01247644
O   0.11256048 -2.42788243  0.33851442
H  -0.04085557 -2.61181903 -0.60309273
H   1.06018543 -2.4009006   0.45179111
O  -0.00187201  1.31563079 -1.69887304
H  -0.43893179  2.0987761  -1.34351838
H  -0.43888301  0.5964973  -1.2157135 
O  -4.85895729  2.14318585 -4.62549543
H  -4.74185228  1.26862216 -5.01470804
H  -4.11886311  2.68057346 -4.93416119
O  -2.0934186   2.66260529 -0.35754961
H  -2.08917618  1.71182323 -0.16058528
H  -2.40517306  3.0960784   0.43492404
O   3.02980614 -0.17218864 -4.86748219
H   3.33793354  0.72725099 -4.66070271
H   3.77284861 -0.64005703 -5.24102449
O  -3.85077953 -0.56165922 -5.11311007
H  -4.34919691 -0.84784102 -4.32917643
H  -3.12803411 -0.02657948 -4.7641921 
O  -1.40890515  0.72872519 -4.09710979
H  -0.70641285  0.67933577 -4.76441765
H  -0.99295229  0.93995297 -3.25549841
