66
-212.121536
O  -11.3892412    1.4967345    7.43085861
H  -10.9440308    1.02890241   8.14487553
H  -12.2191544    1.02039981   7.31668758
O  -12.2398844    3.52129316   4.51290131
H  -12.8638916    4.11934853   4.0806179 
H  -12.3347359    2.66512299   4.07826138
O  -11.0786667   -0.85882914   3.79528379
H  -11.7686911   -0.20405029   3.62960243
H  -11.2862349   -1.25737381   4.64717865
O  -15.1766138    1.09816217   5.24423599
H  -16.1278667    1.06066704   5.18613291
H  -14.9519768    1.94470501   5.67066765
O  -9.39070225  3.70025754  4.34034681
H  -9.39692497  3.39065742  3.42490792
H  -10.3199921    3.75844431   4.59059095
O  -13.1559076    2.74485707  10.9338465 
H  -13.2158804    1.83519912  10.5891409 
H  -13.4228144    2.70401931  11.8483524 
O  -9.42782784 -2.00737786  7.74004078
H  -8.84188747 -2.71838355  7.98426247
H  -8.86784935 -1.21402717  7.62813997
O  -7.93839598  0.17596225  7.64710379
H  -7.93198204  0.7110827   6.83714008
H  -7.99846745  0.77711827  8.39546108
O  -10.3629084    3.43111563  10.3573065 
H  -11.2389565    3.16907096  10.6573133 
H  -10.5027428    3.81833386   9.47974014
O  -13.6581326   -0.25187895   7.24701071
H  -13.0665112   -0.91889608   6.87296009
H  -14.220664     0.07559712   6.53730297
O  -13.2370062    0.22530454  10.0022535 
H   -1.22965746e+01  -1.02090603e-02   1.00068378e+01
H  -13.543232     0.03205383   9.10744667
O  -9.38461399  2.4423418   1.77201605
H  -9.10475922  1.5814625   2.11906576
H  -8.71435642  2.6928823   1.13902724
O  -14.5794725    5.01358461   3.9650228 
H  -14.6994896    4.59099627   4.82876158
H  -14.6465483    5.95340967   4.12479401
O  -11.1897926    4.23245096   7.84567595
H  -12.0902309    4.44396305   8.11117363
H  -11.208972     3.29825258   7.5805068 
O  -7.95359468  1.52370906  5.29542971
H  -8.09839821  0.96726525  4.52367353
H  -8.42268753  2.3488698   5.10532522
O  -10.5303793   -0.25655132   9.71436214
H  -10.176115    -0.943443     9.13837242
H  -9.78174591  0.29399222  9.98027039
O  -8.6529541  -0.01859823  2.93606234
H  -9.51110649 -0.34967104  3.25618124
H  -8.15319347 -0.78105318  2.65777874
O  -11.7640686   -2.11343837   6.27978039
H  -11.9648724   -3.04338479   6.19787264
H  -10.9369526   -2.0525043    6.78545332
O  -13.923358     4.44220066   8.88800907
H  -14.1500607    5.27304125   9.29918289
H  -13.6747131    3.83841801   9.60647202
O   -8.43597126   1.55507374  10.149087  
H   -9.07676506   2.2837832   10.2343206 
H   -7.72203922   1.75136745  10.7492275 
O  -13.1161718    1.04983282   3.3406496 
H  -13.8851004   1.0196898   3.9293189
H  -13.4435263    1.2422421    2.46361494
O  -14.3279381    3.44177794   6.32277346
H  -13.4396305    3.45162678   5.93107128
H  -14.2552061    3.75953698   7.23017359
