66
     -239.16712936221151
O  -0.73154414  2.32077482 -1.46659615
H  -0.59604398  2.96918412 -0.76685614
H   0.04096479  1.7385165  -1.44055543
O   3.79724892  2.28788609  2.71063831
H   4.03094884  2.95944786  2.05583679
H   4.18408668  1.45250025  2.41520366
O   1.28282148  1.6047311   1.66981689
H   0.98289729  0.89690503  2.25399961
H   2.1304753   1.91046385  2.01574969
O  -2.99623104  0.94348784 -0.92857796
H  -3.62188627  0.98759553 -1.64632778
H  -2.2012961   1.42956806 -1.21446375
O  -2.75161632  2.24305632  1.55995661
H  -1.99311014  2.80718701  1.35808214
H  -3.01185245  1.83440093  0.72488071
O   1.43245911  0.62710384 -0.92777109
H   1.21926725 -0.31268353 -0.88417743
H   1.40864109  0.94531189 -0.01153666
O  -1.79595235 -1.24541923  0.45440147
H  -2.00523497 -1.03723581  1.37313241
H  -2.24462284 -0.5762395  -0.07739848
O   1.74481699  5.37483034  1.30523452
H   1.86732376  5.55376295  2.24611121
H   2.56118111  4.96418266  0.99514822
O   4.15366113  4.01300606  0.52017208
H   4.89037509  4.51173024  0.17600495
H    4.10608070e+00   3.19248422e+00  -2.87612000e-03
O   0.66870519 -2.02436366 -0.3445026
H   0.58541311 -2.82887985 -0.8493766
H  -0.2284642  -1.78604586 -0.0489025
O  -0.55545644  4.22458054  3.87536111
H  -0.53402436  4.07756383  2.92151828
H   0.16751373  4.83550766  4.06382816
O  -2.19880329 -0.1074374   3.01513655
H  -2.40011726  0.08763621  3.93839852
H  -2.36596096  0.71269011  2.52790942
O   0.52964781 -0.3001704   3.52222572
H  -0.40773487 -0.38835807  3.30107893
H   0.56885634  0.38230722  4.20652529
O   4.63813172 -0.12686683  1.56115799
H   5.39369762 -0.68548957  1.72247256
H   3.84895273 -0.68731826  1.67106508
O   2.68634924  3.2445192   5.08653006
H   1.94814631  2.66510749  5.30929101
H   3.14216279  2.84008718  4.33448607
O  -3.15973236  3.20057675  4.20422716
H  -2.34979435  3.72861764  4.22159494
H  -3.25991843  2.92896868  3.28241128
O  -2.52301404  0.98007875  5.62750533
H  -2.83913201  1.79449154  5.19492458
H  -3.0998991   0.81883888  6.36903767
O   0.1771565   1.86172116  5.25240645
H  -0.05069913  2.65905995  4.75211318
H  -0.66309164  1.51344187  5.57459956
O   4.05289     1.57967909 -0.67635613
H   4.3487248   0.94344427 -0.01320025
H   3.19020697  1.25965422 -0.97205515
O  -0.35836195  3.67247405  1.0793246
H   0.17242596  2.88386528  1.28260635
H   0.27750576  4.40269596  1.02748146
O   2.40138756 -1.61599171  1.8891376
H   1.79655332 -1.29469794  2.57117115
H   1.85004073 -1.84003498  1.12958951
O   1.85278602  5.65075143  4.1670913
H   2.21963657  4.82944014  4.54170477
H   2.13630651  6.36361491  4.73289575
