72
-232.762863
O   9.62872791 -7.55632734 -0.70967126
H   8.74994946 -7.82177019 -1.01241875
H   10.1775579   -8.33888626  -0.83877915
O    9.43529224 -14.8734417    0.31720948
H    9.44936562 -15.8232956    0.24131036
H   10.3646898 -14.588397    0.345088 
O    4.21954346 -10.6098957    2.65972948
H    4.69287014 -11.3945475    2.33456373
H    3.37486601 -10.9194756    2.97912931
O   8.27417278 -7.21813345  3.88002634
H   8.97050571 -7.04032803  3.21984768
H   8.15707397 -6.41190338  4.37389898
O   8.975564   -9.90632439  4.57247353
H    9.44949532 -10.0060806    3.73426223
H   8.78618431 -8.96159267  4.62437344
O   12.9836378  -11.9289303   -1.46315646
H   13.8621559  -11.6177044   -1.24032283
H   13.0458555  -12.2849131   -2.35038781
O   4.64598322 -8.21093082  1.42171752
H   4.58409548 -7.55285835  2.11063433
H   4.45193672 -9.06741619  1.83730292
O    5.55069971 -12.8982649    2.01844192
H    5.61374712 -13.2955904    2.89467168
H    6.47450781 -12.8007832    1.73597836
O    8.22574329 -11.2534628   -0.89878654
H    8.21456146e+00  -1.16104946e+01   2.34241993e-03
H    7.80365562 -10.3822756   -0.91114938
O   4.44481421 -8.05741978 -1.31511748
H   4.42168808 -8.08301163 -0.34576908
H   4.02902508 -7.24095678 -1.5823108 
O   10.7809343  -10.2148838   -0.71348023
H    9.94636345 -10.6652184   -0.91937161
H   11.498004   -10.7844362   -1.00410593
O    6.19655228 -10.7233953    4.82544088
H    5.64660263 -10.4827623    4.07201004
H    7.07858324 -10.3744144    4.64804697
O    4.40567446 -10.559762    -2.78125286
H    4.66884613 -11.2182808   -2.12048554
H   4.27377939 -9.73826313 -2.29481983
O   11.4106474  -12.3437567    2.75289345
H   11.0354166  -11.5063686    2.45352006
H   10.7569237  -12.6949883    3.36999464
O    6.85326385 -10.0739069   -3.96908689
H    7.27135515 -10.9158573   -4.13592005
H    5.94991064 -10.2834234   -3.67551613
O   10.1724224   -7.10022926   1.97095335
H   9.93694305 -7.05342293  1.03162372
H   10.4248228   -8.02251816   2.09408474
O    6.26542759 -13.4435749    4.74689865
H    6.19638538 -12.4798803    4.87526751
H    5.94661427 -13.8522968    5.54729652
O    8.1939373  -12.7303696    1.43647444
H    8.57998848 -13.5207567    1.02605748
H    8.58181858 -12.6430149    2.31360626
O   10.0194464   -9.97237873   1.9348594 
H   9.08261395 -9.73889923  1.82638621
H   10.3787317  -10.0461874    1.03961825
O   7.385818   -9.11034489  1.92329514
H   6.57589054 -8.82608891  1.49320543
H   7.57097292 -8.4334259   2.5894413 
O   11.9673939  -13.8718243    0.51842207
H   11.8519354  -13.3652592    1.33845651
H   12.3211794  -13.257163    -0.12875971
O   7.20652723 -8.71457386 -1.59313703
H   7.22063828 -9.11778831 -2.47573066
H   6.30100393 -8.41264439 -1.46788275
O    8.99860573 -12.7288933    4.19243622
H    8.15167046 -13.1261396    4.42667389
H    8.98652935 -11.8276987    4.54143524
O    5.4878664  -12.28687     -0.88238549
H    5.36809015e+00  -1.26360140e+01   5.24243992e-03
H    6.42756462 -12.0851479   -0.97041291
