75
-241.989471
O   6.69203663  3.83560658 -7.49605179
H   6.14217043  3.20126891 -7.02397013
H   6.99314165  4.4643383  -6.83088017
O   4.88719988  2.78329825 -1.92923987
H   5.17928839  2.09053016 -2.53933072
H   4.01065397  3.0689714  -2.20938826
O   8.61537743  1.83526504 -0.29748246
H   7.74744987  1.99596071  0.10517917
H   9.23049641  1.73294044  0.42408863
O   0.39799148  6.63827467 -1.71278131
H   0.50431299  5.82567883 -1.19554651
H  -0.33994967  7.11163139 -1.33430219
O   4.57077551  7.55614614 -3.84609962
H   4.97348452  7.49683762 -2.97443461
H   4.50563335  6.65063858 -4.18475676
O   5.71629238  6.95999479 -1.30044341
H   6.08649921  7.58561468 -0.68281996
H   4.81520844  6.75592089 -0.99323297
O   8.25452042  2.39230633 -2.96677065
H   8.48690319  2.15550399 -2.0550983 
H   8.00702286  3.32149243 -2.93978524
O   6.07032061  1.04740977 -3.79808235
H   6.19345856  0.10160413 -3.78280807
H   6.92761993  1.45244956 -3.57379484
O   4.73809671  2.38220334 -5.87534285
H   5.26279354  1.87217605 -5.24481678
H   4.64550781  3.27574944 -5.51086569
O   4.79727125  4.47479916 -9.50003529
H   5.55547285  4.29179907 -8.92653084
H   4.40920782  5.28708458 -9.15280056
O   3.91661429  8.83472633 -7.59767723
H   4.78429794  8.69306755 -7.19225311
H   3.72336459  8.01090622 -8.06210613
O   1.27691031  4.22669888 -0.50247168
H   0.86872655  3.47026229 -0.08919155
H   1.63276863  3.92247772 -1.354509  
O   6.66543198  4.80255842 -2.77381063
H   6.47876549  5.58143806 -2.23100853
H   6.15738106  4.07524109 -2.38380384
O   1.07826149  5.69590807 -4.29931498
H   1.46964824  6.41838884 -4.8125267 
H   0.69088644  6.10595608 -3.51617503
O   2.40174556  7.77468061 -5.53694487
H   3.07188082  7.84800911 -4.84363174
H   2.73932409  8.32292652 -6.26056814
O   3.13591909  6.42866182 -0.64432597
H   2.73618317  5.61019945 -0.33094552
H   2.4239552   6.86349106 -1.1257621 
O   4.4610219   4.82155418 -4.52390814
H   5.24611473  4.77839375 -3.96036077
H   3.71830869  4.51090813 -3.99035144
O   2.21894956  1.57652819 -4.6027565 
H   3.04290032  1.60141003 -5.09972239
H   1.57090104  2.05214143 -5.15065241
O   0.72226083  3.32619715 -6.08602095
H   0.69639116  4.19791889 -5.6795373 
H   1.33268344  3.37929034 -6.83559275
O   2.90316486  3.27519941 -7.88521385
H   3.46677446  3.53102112 -8.63155079
H   3.49504805  2.82760358 -7.26970768
O   7.69651079  5.61538839 -5.40018177
H   8.65301132  5.60883045 -5.43147945
H   7.45709372  5.38928127 -4.49326897
O   6.22819519  8.13770485 -6.08102274
H   6.75341129  7.33259392 -6.05195332
H   5.70515299  8.11307526 -5.26930952
O   3.11303234  6.12634134 -7.85480261
H   2.92441034  6.51845837 -6.99526453
H   2.95920467  5.17931652 -7.75325632
O   2.36555099  3.68284225 -2.96516275
H   2.26659107  2.85995793 -3.47251034
H   1.87725556  4.37725925 -3.43627357
O   6.02851725  2.33502412  0.57825583
H   5.5434413   2.48494363 -0.24731892
H   5.39062691  1.9990418   1.20348191
