90
-315.486389
O   6.08538437 -2.01364589  1.77035117
H   5.64641142 -2.47618103  1.04540431
H   5.66747189 -2.31045341  2.58821297
O  -1.30002773 -1.62284172  5.64666653
H  -1.78470027 -2.4470222   5.51117468
H  -1.73662591 -0.93422389  5.12709761
O   4.50823641 -2.9346211  -0.41593412
H   4.7072649  -3.13767147 -1.32671142
H   4.03917074 -2.08292556 -0.41309902
O   0.64030135  0.40804979 -0.82203078
H   1.59453487  0.27631542 -0.76141173
H   0.28001547 -0.47963131 -0.96429235
O   5.36323738  0.57971382  1.41013086
H   6.07678556  1.14719629  1.1317296 
H   5.73637581 -0.31365183  1.52388847
O  -4.55390215  0.53663999  2.24355745
H  -3.97385573  0.4547154   1.46673238
H  -5.09903908  1.30665743  2.09861135
O   1.36458242 -1.92071199  1.49904811
H   1.77308154 -2.79401612  1.43702912
H   1.08361447 -1.80237103  2.41325474
O   2.45798159 -4.02906704  3.87946057
H   2.54511952 -4.2991662   2.95359135
H   3.28234816 -3.57279325  4.09525061
O   4.74154568 -2.44260144  4.28713036
H   5.30706358 -2.49142838  5.05456066
H   4.46417618 -1.51216352  4.20690155
O  -3.22610116 -5.55993271  0.65492731
H  -2.34556031 -5.83841276  0.94583887
H  -3.10111976 -4.75606441  0.12710828
O   2.64301109 -4.39200783  1.10094273
H   3.37466121 -4.00305986  0.60441041
H   2.00491834 -4.70059538  0.44268241
O  -3.21220303 -7.31207275 -1.52673864
H  -3.3533597  -6.77947903 -0.72855246
H  -4.055305   -7.71271324 -1.72556019
O   0.61252409 -4.9039979  -0.76151872
H   0.08528794 -5.32739735 -0.06846448
H   0.33094102 -3.97989082 -0.82262439
O  -2.41805983 -4.17991543  5.14480257
H  -2.98638391 -4.13087225  4.35750055
H  -2.88703847 -4.70382452  5.78982925
O  -0.30981708 -2.21756792 -0.7215274 
H  -1.21846068 -2.5527494  -0.71052283
H   0.00552902 -2.12447882  0.18973112
O   3.19813752 -0.53352207 -0.0379486 
H   2.55224156 -0.91194427  0.58107758
H   3.84997892 -0.03449026  0.46910787
O  -2.15749645  0.27863586  3.74575233
H  -1.55384433  0.69048226  3.11436749
H  -3.04864645  0.40777242  3.39462113
O   1.01197922 -1.64370072  4.2459898 
H   1.49259031 -2.47935891  4.25394917
H   0.22422101 -1.72658443  4.80384541
O  -0.639054   -6.28196669  1.35574377
H  -0.39445719 -7.20424318  1.38269925
H  -0.44269031 -5.91251755  2.23456478
O   1.37713969  1.00925696  3.86450315
H   1.06407666  1.48066998  4.63420057
H   1.24707222  0.06137752  4.0499835 
O  -3.79452658 -3.90949655  2.80538654
H  -3.75802445 -4.61381483  2.14563489
H  -3.14008284 -3.24732113  2.5216651 
O  -0.37725031  1.16596019  1.63579881
H   0.32096112  1.19886947  2.30068707
H   0.05863197  0.96440351  0.7922774 
O  -2.00121379 -2.02152824  2.06246924
H  -1.91347206 -1.36587536  2.76435351
H  -2.23938513 -1.50922477  1.28179228
O  -2.63754559  0.22210752  0.29838473
H  -2.44590235  0.12414525 -0.63205981
H  -1.85171163  0.61998862  0.70629185
O  -5.31670666 -2.29444671 -1.0394156 
H  -5.49612188 -2.2153585  -0.08716854
H  -6.16506672 -2.41257811 -1.45820284
O  -2.79022765 -3.33908296 -0.97725618
H  -3.67514992 -2.98243165 -1.1344223 
H  -2.52416873 -3.91627097 -1.71036589
O  -5.65566111 -2.06649804  1.68088162
H  -5.35336065 -1.20772099  1.99795401
H  -5.14013863 -2.72845888  2.15892172
O   4.10309267  0.17331797  3.89597988
H   4.53652334  0.4608579   3.08243275
H   3.2184968   0.55532825  3.8789351 
O  -0.11056553 -5.28526449  3.79817104
H   0.73651332 -4.87884808  4.01426363
H  -0.79231882 -4.85603952  4.32711267
O  -1.67566073 -5.22665644 -2.6293118 
H  -2.15064931 -6.03282833 -2.38142848
H  -0.81186539 -5.28095436 -2.20645165
