36
-101.666733
O    3.94234371 -17.3117161  -28.642149  
H    4.56157875 -17.7841511  -28.0731144 
H    4.04784727 -16.371088   -28.4391403 
O    6.37096691 -18.4480152  -27.6985264 
H    6.4376812 -18.5956478 -28.6547031
H    6.70635128 -19.2340946  -27.2739429 
O   -0.0905958 -16.0434666 -29.776659 
H    0.33629605 -15.9039669  -28.9240761 
H    0.61604017 -16.3486118  -30.355587  
O    3.68666816 -14.3690214  -30.6755085 
H    4.38101339 -14.4642591  -31.3421021 
H    3.05037355 -15.0699301  -30.8645973 
O    7.74875116 -16.0008812  -30.7363377 
H    8.67658901 -15.8217039  -30.8644505 
H    7.53645039 -15.7538776  -29.8191929 
O    2.40931487 -16.8826466  -31.065403  
H    2.97911048 -17.2184734  -31.7670479 
H    2.79275894 -17.1897945  -30.2347412 
O    6.94573641 -15.6231642  -28.1655121 
H    6.82506227 -16.5074883  -27.8000698 
H    6.09687853 -15.1725588  -28.0788288 
O    1.63714588 -15.8618832  -27.3935928 
H    2.30451727 -15.1836109  -27.5305882 
H    2.09231806 -16.6854858  -27.5921211 
O    5.64715528 -15.1155043  -32.498188  
H    6.43112135 -15.3368187  -31.9813862 
H    5.27310276 -15.9565315  -32.7866364 
O    5.99188995 -18.1587029  -30.4804478 
H    6.64784145 -17.462553   -30.6366348 
H    5.25091743 -17.7459221  -30.0136185 
O    4.5085907 -17.7876034 -32.8307762
H    4.52031708 -18.4582787  -33.5099525 
H    5.07401657 -18.1068897  -32.1111794 
O    4.28864479 -14.5163984  -28.1073112 
H    4.07589626 -14.3578558  -29.0484276 
H    4.25158787 -13.6724787  -27.6647129 
