45
-132.312408
O  -6.28863239 -8.87436008  1.89005375
H  -6.76985884 -9.68733978  2.08019733
H  -6.62941217 -8.47166538  1.08135426
O  -4.37160969 -7.08165884 -2.58113813
H  -5.30967379 -7.30315018 -2.70407295
H  -3.87934756 -7.70130825 -3.11343002
O  -7.95208693 -6.62362051  2.69519806
H  -8.08500957 -6.67356491  3.65162253
H  -7.34421921 -7.35105944  2.51135659
O  -5.66852665 -9.00973892  4.68939114
H  -4.72958851 -8.82596588  4.83617544
H  -5.81833601 -8.77930832  3.76328349
O  -7.07255125 -7.62810516 -2.57285285
H  -7.21639395 -7.36341906 -1.65007627
H  -7.9303484  -7.60974073 -2.98954487
O  -10.9071522   -7.93633699   6.0585556 
H  -10.0617342   -7.49344587   6.18590593
H  -10.676589    -8.75677967   5.59894037
O  -3.0110147  -8.34379864  4.5081768 
H  -2.08617425 -8.27024937  4.72621107
H  -3.08259249 -8.14271545  3.55999827
O  -12.2854881   -6.87146997   3.88169575
H  -11.8806953   -7.16956949   4.71214104
H  -13.214901    -6.76694489   4.06834507
O  -3.59028172 -7.92070103  1.83272767
H  -3.69436073 -7.18692303  1.21641791
H  -4.42800426 -8.39729786  1.78621805
O  -7.02789164 -6.84583616  0.08154511
H  -6.14323902 -6.45249319  0.08756959
H  -7.50158882 -6.48980808  0.84378505
O   -7.19486141 -11.0372591    3.54396176
H   -6.90071392 -11.9400215    3.63990021
H   -6.63255835 -10.499527     4.12619877
O  -8.0854435  -7.58103943  5.31281567
H  -7.19528723 -7.94741917  5.36769247
H  -8.63725853 -8.31256771  4.99624681
O  -9.63922215 -9.74910927  4.30199146
H   -8.92566109 -10.3341322    4.02957249
H  -9.94791412 -9.28283691  3.50783014
O  -4.3568244  -5.94313908 -0.10871316
H  -4.07149315 -5.03460407 -0.16793901
H  -4.26213503 -6.3261981  -0.99859762
O  -10.3885059   -8.09027672   2.24260092
H  -9.64120865 -7.48288345  2.2903657 
H  -11.1231241   -7.63630915   2.68321013
