51
-149.818237
O   1.97388351 -3.63098335 -2.81294322
H   1.85862243 -4.58793068 -2.70727682
H   2.91872001 -3.46881342 -2.72723651
O  -0.56699419 -7.99064207 -2.7764771 
H  -1.37269747 -7.54137087 -3.03408861
H  -0.80810356 -8.53190613 -2.02371836
O   0.58991945 -2.11884904 -1.02606058
H   0.68627679 -2.63416743 -0.21431141
H   0.99663204 -2.63717747 -1.73823082
O   4.75546503 -3.13575006 -2.17871451
H   4.77850103 -2.1663475  -2.11743212
H   5.46277809 -3.39438605 -2.76434278
O   2.36265993 -0.08176077 -0.39457306
H   1.96047163 -0.9493612  -0.5491308 
H   1.64385605  0.52344197 -0.61879522
O   4.64010429 -0.40610653 -1.94259322
H   3.85561657 -0.22178687 -1.40221524
H   4.69445896  0.30718738 -2.57444859
O   3.34344578 -0.14959332  2.22427034
H   2.99051595 -0.08229354  1.32427764
H   4.26771355  0.08137963  2.15747619
O   5.84699631 -6.52437449  3.82573962
H   5.46261072 -5.65160418  3.64561653
H   6.70153856 -6.51622057  3.40035725
O   4.40554571 -4.19655514  3.07542849
H   4.42321301 -4.16011906  2.10818338
H   3.75641084 -3.54030204  3.35865116
O   3.15134788 -6.77898598  2.91213679
H   3.28320169 -5.82926893  3.03210425
H   3.99845028 -7.13950968  3.19769144
O   1.9910804  -6.22253275  0.48734096
H   2.35782003 -6.60675812  1.29745424
H   1.52235222 -5.42300749  0.76040173
O   2.34712696 -2.3476615   3.55307484
H   1.98549879 -2.13772726  4.42032909
H   2.67784834 -1.52698243  3.156703  
O   4.01607561 -4.22405624  0.30538744
H   4.30020666 -3.89881372 -0.5569843 
H   3.53530312 -5.05150366  0.1694762 
O   1.32091105 -1.82485604  6.13540649
H   1.33446574 -2.47765946  6.83605337
H   0.94079679 -1.03735769  6.5246954 
O   1.43481934 -3.52363133  1.19882345
H   1.56266475 -3.14394784  2.07764721
H   2.3268311  -3.62015939  0.83280385
O  -0.17672773  0.58184415 -1.24905121
H  -1.08645582  0.74771929 -1.01574099
H  -0.07683285 -0.38527185 -1.24478412
O   1.73205078 -6.32609749 -2.28871822
H   1.81418645 -6.40167618 -1.32756734
H   1.00795579 -6.90952539 -2.53876448
