54
    -190.640274
O   3.60563946  5.74920177  3.57626152
H   3.42697287  6.3049407   2.79598927
H   3.83058167  6.34230328  4.28821564
O   1.75648284  4.4349637  -3.82753587
H   2.56611276  4.95389366 -3.90974903
H   1.30793595  4.76459599 -3.03863478
O   4.20176649  4.09943199 -0.16559222
H   4.09314299  4.99005556 -0.51770496
H   3.3340807   3.67462945 -0.2285115
O   2.87385249  7.20776796  1.40012765
H   3.20708632  7.13290358  0.49743733
H   1.91999185  7.07104683  1.3353411
O   1.72910523  2.82497668 -0.3118338
H   2.06804824  2.06836772 -0.80895519
H   1.71526301  2.57122564  0.62059259
O   0.13324121  6.37030077  1.21951115
H  -0.6623953   6.7876296   1.53893256
H   0.36751401  5.6818347   1.86770654
O   4.64039373  3.39880657  2.44570875
H   4.41666222  4.16496468  2.98784733
H   4.56144428  3.70428586  1.52769578
O   3.43678498  6.51313877 -1.28991425
H   3.82521844  6.37241507 -2.16265202
H   2.53550839  6.15751266 -1.33028698
O   4.3597393   5.6696744  -3.80800509
H   4.72074699  4.76692295 -3.75729918
H   4.81054735  6.10375071 -4.52763176
O   0.91526359  5.26990795 -1.25605714
H   1.10876501  4.36780214 -0.95550138
H   0.51002526  5.71274948 -0.50073647
O   5.14233923  3.0594871  -3.71045876
H   4.35117722  2.56681514 -3.96278262
H   5.48588324  2.62264228 -2.92156434
O   5.58281851  1.93652928 -1.13675773
H   5.86223125  1.51193643 -0.31811541
H   5.18219376  2.77720737 -0.86162919
O   3.06141233  0.77623165 -1.64270031
H   3.96930242  1.087749   -1.51641786
H   2.82499528  1.00129092 -2.5517993
O   2.12393689  2.06717348  2.34273124
H   2.34673882  1.18157291  2.01967001
H   2.97206688  2.50724506  2.49131155
O   2.56775498  1.86456859 -4.18221188
H   2.19698763  1.5189693  -4.98988581
H   2.19174957  2.75464654 -4.06001234
O   3.19899011 -0.14396732  1.08495784
H   4.11976862  0.09483297  1.24834347
H   3.06718683 -0.0428058   0.13401125
O   5.81743622  1.03058636  1.57358897
H   6.50154257  0.69126064  2.14596224
H   5.48725319  1.84389615  1.98939264
O   1.02654409  4.56836033  3.04953575
H   1.85440838  4.94690037  3.37066936
H   1.21007764  3.63352108  2.89285779
