57
-175.354385
O  -2.94026709 -4.21515608  1.20400047
H  -3.04776764 -4.66666937  0.3553057 
H  -3.05395079 -4.88171625  1.89582443
O   0.42170546 -5.4310503  -2.52504349
H   0.0513028  -4.53775311 -2.50160217
H   0.55126244 -5.6296134  -3.46206594
O  -4.1424737  -2.07779694 -0.20548204
H  -3.82030678 -2.71861219  0.43859494
H  -4.95112753 -2.44972777 -0.58494616
O  -2.21763659 -0.7838347  -1.5697906 
H  -2.93719172 -1.22128797 -1.08030975
H  -2.56711936  0.04650295 -1.88007879
O  -2.87385392 -4.28130007 -3.48350763
H  -2.04936385 -3.80523825 -3.31354856
H  -2.64207888 -5.04888821 -4.01537943
O  -5.88350391 -5.89012194 -2.06514883
H  -5.02091837 -5.9641633  -1.63713515
H  -5.7483201  -6.19521713 -2.96855664
O  -0.31868261 -3.43682814  1.57778895
H  -0.19058661 -3.31816864  2.51637626
H  -1.25794613 -3.64893174  1.45084846
O  -5.28947592 -7.25840187 -4.57100964
H  -5.74163198 -8.09057522 -4.4394865 
H  -5.10317564 -7.19973469 -5.52142143
O  -1.69007027 -7.48284864  0.67427772
H  -2.37519073 -6.93222189  0.27870429
H  -0.87203693 -6.95618582  0.62767202
O  -3.99762535 -7.23106289 -7.01599455
H  -3.69622779 -7.53898764 -7.86771727
H  -3.21852803 -7.22051001 -6.44290495
O  -3.18693066 -5.70018578 -1.17795777
H  -2.57305264 -6.3669343  -1.50982487
H  -3.21362138 -5.03320503 -1.88327742
O   0.121435   -5.95769072 -5.25961685
H   0.06854357 -5.25783682 -5.90882015
H  -0.76888144 -6.32907772 -5.19321775
O   0.39083287 -1.52688241 -0.4113045 
H   0.20186683 -2.12566924  0.32288227
H  -0.44847399 -1.09623945 -0.61916137
O  -0.63644391 -2.83594346 -2.58448839
H  -1.33825111 -2.18024349 -2.46073651
H   0.01417028 -2.54060555 -1.93054128
O  -1.30213284 -7.57012892 -2.17614245
H  -1.25884557 -7.92764997 -1.28363907
H  -0.63423318 -6.86700201 -2.23175716
O  -2.92704606 -6.37913704  2.94123125
H  -2.42160273 -6.93188381  2.32628417
H  -3.4518137  -6.97951794  3.46548748
O  -6.4208827  -3.28342652 -1.25658596
H  -6.2997613  -4.18620872 -1.58916903
H  -7.3547287  -3.19499779 -1.08234894
O  -2.46278453 -7.00008869 -4.60316229
H  -3.41500664 -7.0846138  -4.45617294
H  -2.03893566 -7.34976149 -3.80456042
O   0.48069394 -5.86186695  0.31008387
H   0.33595085 -5.00944471  0.7397595 
H   0.67012256 -5.67221975 -0.61635333
