87
-291.904663
O  -5.35155725 -0.1104952   3.6141305 
H  -4.54334068  0.40704694  3.4841764 
H  -5.11817026 -1.03897429  3.734972  
O  -5.24084997  3.60217333  2.04957891
H  -5.21085358  3.87884045  1.13704276
H  -5.95416355  2.9439826   2.1216507 
O  -5.26889849 -1.53312957  7.70593071
H  -4.41200018 -1.53486955  7.24369526
H  -5.7127676  -2.33261776  7.40161133
O  -4.15362167 -5.27467632  3.06274033
H  -4.47133303 -5.73059082  2.28712249
H  -4.36118603 -5.83533192  3.82667994
O  -7.0803504   1.6255399   2.35965729
H  -6.55621099  0.91458476  2.76329517
H  -7.97805023  1.49588025  2.65527654
O  -4.66414499 -6.55995512  5.49512863
H  -5.06225824 -5.79086733  5.93688297
H  -5.10887861 -7.33337212  5.83354855
O  -3.48897171  0.1307525   9.23880196
H  -4.22913456 -0.40054885  8.93199444
H  -3.47243309  0.9009968   8.64916134
O  -1.58557391 -4.50070906  4.00388718
H  -2.35275865 -4.80724144  3.50872326
H  -1.70759726 -4.83702803  4.89941978
O  -4.97439384  4.94466591  4.49970627
H  -5.05827284  5.88550663  4.3587079 
H  -5.09959221  4.52266836  3.63602495
O  -5.4444313  -4.1553731   6.60424995
H  -5.22751427 -3.64832377  5.8072629 
H  -4.69750929 -4.09278297  7.21920776
O  -3.8799386   2.18455815  7.44701862
H  -4.39430285  1.56669176  6.9055748 
H  -4.5005002   2.9181695   7.55989695
O  -2.94053268 -1.7338202   6.19827557
H  -2.19079542 -2.2492888   6.51798391
H  -2.5629046  -1.06737697  5.60373974
O   0.11590565  2.82976127  4.70287085
H   0.31793138  2.14654374  5.35304832
H  -0.74498045  3.17734814  4.96101046
O  -0.07015028 -2.23397088  3.50619364
H  -0.66807383 -1.49382079  3.67309117
H  -0.59252107 -3.04287982  3.61006212
O  -6.1375885   3.6546464   6.83776522
H  -6.30403709  2.7402997   6.57375431
H  -5.8504529   4.10990429  6.03700924
O   1.50900769 -2.03984237  5.6614213 
H   1.04017687 -2.12083387  4.80966949
H   2.43408847 -2.18800092  5.48835993
O  -3.48661542 -4.20431614  8.70623589
H  -2.83878112 -3.54445457  8.99371433
H  -4.23246479 -4.08782244  9.30822086
O  -4.65832758 -2.7480979   4.28907061
H  -4.41675186 -3.5096612   3.74974847
H  -3.89349484 -2.50244284  4.83258009
O  -1.68067253 -0.11037875  4.45632648
H  -2.03008151  0.59130806  3.89843225
H  -1.01178026  0.26778728  5.04759455
O  -0.6349296  -3.0898242   7.09805679
H  -0.81149286 -4.01112127  6.88450003
H   0.15782858 -2.80431294  6.62485695
O   0.26583383  0.46340623  6.34836817
H   0.17347005  0.46823907  7.3115654 
H   0.82534128 -0.29238725  6.13557577
O   -5.56752539  -3.0782702   10.1845961 
H  -5.55069733 -2.40667677  9.49121094
H   -5.40795946  -2.60880351  11.0027018 
O  -3.32696915  1.78913617  3.23213363
H  -3.83409142  2.36749911  2.65427184
H  -3.02334571  2.35452294  3.95926452
O  -2.15836835 -5.50421572  6.62474203
H  -2.84463215 -6.06195402  6.24387932
H  -2.55180383 -5.14166832  7.43299437
O  -1.71594012 -2.15343904  9.4325037 
H  -2.19220304 -1.32950902  9.26382256
H  -1.22053242 -2.38398194  8.6305151 
O  -2.65265632  3.48768163  5.30644131
H  -2.91582537  3.03270173  6.11774111
H  -3.35366869  4.12006712  5.10786152
O   0.03007779  0.22824305  9.10665607
H  -0.41281217  0.84440416  9.70573807
H  -0.23349389 -0.64298862  9.41509151
O   -1.7056272    1.63910449  10.8145809 
H   -2.41343331   1.10298586  10.4269915 
H   -2.03968477   2.53366113  10.8374538 
O  -5.92620039  0.78836525  6.18687248
H   -5.91667366e+00   7.08080013e-04   6.74263859e+00
H  -5.78063965  0.48646989  5.28059244
